[TITLE]


[SPECIES]
BULK    CL2                              MG              1.000000e-002 1.000000e-003
BULK    P                                CFU             1.000000e-002 1.000000e-003
BULK    C_FRA                            MG              1.000000e-002 1.000000e-003
BULK    C_SRA                            MG              1.000000e-002 1.000000e-003

[COEFFICIENTS]
CONSTANT    T                                 1.200000e+001
CONSTANT    Kp                                9.230000e+001
CONSTANT    A                                 1.000000e+000
CONSTANT    B                                 1.400000e+001

[OPTIONS]
AREA_UNITS          FT2
RATE_UNITS          HR
SOLVER          RK5
TIMESTEP          300
ATOL          0.001
RTOL          0.001

[TERMS]
Km (1.5826e-04 * RE^0.88 )/ D
KWAL A*EXP(-B*CL2)
K_FAST 0.2808
K_SLOW 0.0071

[PIPES]
RATE CL2 -K_FAST*C_FRA*CL2-K_SLOW*C_SRA*CL2-((4/D)*(KWAL/(1+KWAL/Km)))*CL2
RATE P -Kp*P*CL2
RATE C_FRA -K_FAST*C_FRA*CL2
RATE C_SRA -K_SLOW*C_SRA*CL2

[TANKS]
RATE CL2 -K_FAST*C_FRA*CL2-K_SLOW*C_SRA*CL2
RATE P -Kp*P*CL2
RATE C_FRA -K_FAST*C_FRA*CL2
RATE C_SRA -K_SLOW*C_SRA*CL2

[REPORT]
NODES ALL
LINKS ALL


[QUALITY]

[SOURCES]
MASS        dist225                           CL2                               2.000000e-001  CL2PAT2                         
MASS        dist423                           CL2                               2.000000e-001  CL2PAT1                         
MASS        dist989                           CL2                               2.000000e-001  CL2PAT3                         
MASS        dist1214                          C_SRA                             1.000000e+000  C_SRAPAT                        
MASS        dist1214                          C_FRA                             1.000000e+000  C_FRAPAT                        
MASS        dist1214                          P                                 1.000000e+000  PathPAT                         
MASS        dist1283                          CL2                               2.000000e-001  CL2PAT4                         
MASS        dist1931                          CL2                               2.000000e-001  CL2PAT5                         
SETPOINT    WTP                               C_SRA                             3.359300e+000  C_SRA_REPAT                     
SETPOINT    WTP                               CL2                               5.018300e-001  CL2PAT                          

[PATTERNS]
CL2PAT                            1.000000e+000
C_SRA_REPAT                       9.000000e-001  9.000000e-001  9.000000e-001  9.000000e-001  9.000000e-001  9.000000e-001
C_SRA_REPAT                       9.000000e-001  9.000000e-001  9.000000e-001  9.000000e-001  9.000000e-001  9.000000e-001
C_SRA_REPAT                       9.000000e-001  9.000000e-001  9.000000e-001  9.000000e-001  9.000000e-001  9.000000e-001
C_SRA_REPAT                       9.000000e-001  9.000000e-001  9.000000e-001  9.000000e-001  9.000000e-001  9.000000e-001
C_SRA_REPAT                       9.000000e-001  9.000000e-001  9.000000e-001  9.000000e-001  9.000000e-001  9.000000e-001
C_SRA_REPAT                       9.000000e-001  9.000000e-001  9.000000e-001  9.000000e-001  9.000000e-001  9.000000e-001
C_SRA_REPAT                       9.000000e-001  9.000000e-001  9.000000e-001  9.000000e-001  9.000000e-001  9.000000e-001
C_SRA_REPAT                       9.000000e-001  9.000000e-001  9.000000e-001  9.000000e-001  9.000000e-001  9.000000e-001
C_SRA_REPAT                       9.000000e-001  9.000000e-001  9.000000e-001  9.000000e-001  9.000000e-001  9.000000e-001
C_SRA_REPAT                       9.000000e-001  9.000000e-001  9.000000e-001  9.000000e-001  9.000000e-001  9.000000e-001
C_SRA_REPAT                       9.000000e-001  9.000000e-001  9.000000e-001  9.000000e-001  9.000000e-001  9.000000e-001
C_SRA_REPAT                       9.000000e-001  9.000000e-001  9.000000e-001  9.000000e-001  9.000000e-001  9.000000e-001
C_SRA_REPAT                       9.000000e-001  9.000000e-001  9.000000e-001  9.000000e-001  9.000000e-001  9.000000e-001
C_SRA_REPAT                       9.000000e-001  9.000000e-001  9.000000e-001  9.000000e-001  9.000000e-001  9.000000e-001
C_SRA_REPAT                       9.000000e-001  9.000000e-001  9.000000e-001  9.000000e-001  9.000000e-001  9.000000e-001
C_SRA_REPAT                       9.000000e-001  9.000000e-001  9.000000e-001  9.000000e-001  9.000000e-001  9.000000e-001
C_SRA_REPAT                       9.000000e-001  9.000000e-001  9.000000e-001  9.000000e-001  9.000000e-001  9.000000e-001
C_SRA_REPAT                       9.000000e-001  9.000000e-001  9.000000e-001  9.000000e-001  9.000000e-001  9.000000e-001
C_SRA_REPAT                       9.000000e-001  9.000000e-001  9.000000e-001  9.000000e-001  9.000000e-001  9.000000e-001
C_SRA_REPAT                       9.000000e-001  9.000000e-001  9.000000e-001  9.000000e-001  9.000000e-001  9.000000e-001
C_SRA_REPAT                       9.000000e-001  9.000000e-001  9.000000e-001  9.000000e-001  9.000000e-001  9.000000e-001
C_SRA_REPAT                       9.000000e-001  9.000000e-001  9.000000e-001  9.000000e-001  9.000000e-001  9.000000e-001
C_SRA_REPAT                       9.000000e-001  9.000000e-001  9.000000e-001  9.000000e-001  9.000000e-001  9.000000e-001
C_SRA_REPAT                       9.000000e-001  9.000000e-001  9.000000e-001  9.000000e-001  9.000000e-001  9.000000e-001
C_SRA_REPAT                       9.000000e-001  9.000000e-001  9.000000e-001  9.000000e-001  9.000000e-001  9.000000e-001
C_SRA_REPAT                       9.000000e-001  9.000000e-001  9.000000e-001  9.000000e-001  9.000000e-001  9.000000e-001
C_SRA_REPAT                       9.000000e-001  9.000000e-001  9.000000e-001  9.000000e-001  9.000000e-001  9.000000e-001
C_SRA_REPAT                       9.000000e-001  9.000000e-001  9.000000e-001  9.000000e-001  9.000000e-001  9.000000e-001
C_SRA_REPAT                       9.000000e-001  9.000000e-001  9.000000e-001  9.000000e-001  9.000000e-001  9.000000e-001
C_SRA_REPAT                       9.000000e-001  9.000000e-001  9.000000e-001  9.000000e-001  9.000000e-001  9.000000e-001
C_SRA_REPAT                       9.000000e-001  9.000000e-001  9.000000e-001  9.000000e-001  9.000000e-001  9.000000e-001
C_SRA_REPAT                       9.000000e-001  9.000000e-001  9.000000e-001  9.000000e-001  9.000000e-001  9.000000e-001
C_SRA_REPAT                       9.000000e-001  9.000000e-001  9.000000e-001  9.000000e-001  9.000000e-001  9.000000e-001
C_SRA_REPAT                       9.000000e-001  9.000000e-001  9.000000e-001  9.000000e-001  9.000000e-001  9.000000e-001
C_SRA_REPAT                       9.000000e-001  9.000000e-001  9.000000e-001  9.000000e-001  9.000000e-001  9.000000e-001
C_SRA_REPAT                       9.000000e-001  9.000000e-001  9.000000e-001  9.000000e-001  9.000000e-001  9.000000e-001
C_SRA_REPAT                       9.000000e-001  9.000000e-001  9.000000e-001  9.000000e-001  9.000000e-001  9.000000e-001
C_SRA_REPAT                       9.000000e-001  9.000000e-001  9.000000e-001  9.000000e-001  9.000000e-001  9.000000e-001
C_SRA_REPAT                       9.000000e-001  9.000000e-001  9.000000e-001  9.000000e-001  9.000000e-001  9.000000e-001
C_SRA_REPAT                       9.000000e-001  9.000000e-001  9.000000e-001  9.000000e-001  9.000000e-001  9.000000e-001
C_SRA_REPAT                       9.000000e-001  9.000000e-001  9.000000e-001  9.000000e-001  9.000000e-001  9.000000e-001
C_SRA_REPAT                       9.000000e-001  9.000000e-001  9.000000e-001  9.000000e-001  9.000000e-001  9.000000e-001
C_SRA_REPAT                       9.000000e-001  9.000000e-001  9.000000e-001  9.000000e-001  9.000000e-001  9.000000e-001
C_SRA_REPAT                       9.000000e-001  9.000000e-001  9.000000e-001  9.000000e-001  9.000000e-001  9.000000e-001
C_SRA_REPAT                       9.000000e-001  9.000000e-001  9.000000e-001  9.000000e-001  9.000000e-001  9.000000e-001
C_SRA_REPAT                       9.000000e-001  9.000000e-001  9.000000e-001  9.000000e-001  9.000000e-001  9.000000e-001
C_SRA_REPAT                       9.000000e-001  9.000000e-001  9.000000e-001  9.000000e-001  9.000000e-001  9.000000e-001
C_SRA_REPAT                       9.000000e-001  9.000000e-001  9.000000e-001  9.000000e-001  9.000000e-001  9.000000e-001
C_SRA_REPAT                       9.000000e-001  9.000000e-001  9.000000e-001  9.000000e-001  9.000000e-001  9.000000e-001
C_SRA_REPAT                       9.000000e-001  9.000000e-001  9.000000e-001  9.000000e-001  9.000000e-001  9.000000e-001
C_SRA_REPAT                       9.000000e-001  9.000000e-001  9.000000e-001  9.000000e-001  9.000000e-001  9.000000e-001
C_SRA_REPAT                       9.000000e-001  9.000000e-001  9.000000e-001  9.000000e-001  9.000000e-001  9.000000e-001
C_SRA_REPAT                       9.000000e-001  9.000000e-001  9.000000e-001  9.000000e-001  9.000000e-001  9.000000e-001
C_SRA_REPAT                       9.000000e-001  9.000000e-001  9.000000e-001  9.000000e-001  9.000000e-001  9.000000e-001
C_SRA_REPAT                       9.000000e-001  9.000000e-001  9.000000e-001  9.000000e-001  9.000000e-001  9.000000e-001
C_SRA_REPAT                       9.000000e-001  9.000000e-001  9.000000e-001  9.000000e-001  9.000000e-001  9.000000e-001
C_SRA_REPAT                       9.000000e-001  9.000000e-001  9.000000e-001  9.000000e-001  9.000000e-001  9.000000e-001
C_SRA_REPAT                       9.000000e-001  9.000000e-001  9.000000e-001  9.000000e-001  9.000000e-001  9.000000e-001
C_SRA_REPAT                       9.000000e-001  9.000000e-001  9.000000e-001  9.000000e-001  9.000000e-001  9.000000e-001
C_SRA_REPAT                       9.000000e-001  9.000000e-001  9.000000e-001  9.000000e-001  9.000000e-001  9.000000e-001
C_SRA_REPAT                       9.000000e-001  9.000000e-001  9.000000e-001  9.000000e-001  9.000000e-001  9.000000e-001
C_SRA_REPAT                       9.000000e-001  9.000000e-001  9.000000e-001  9.000000e-001  9.000000e-001  9.000000e-001
C_SRA_REPAT                       9.000000e-001  9.000000e-001  9.000000e-001  9.000000e-001  9.000000e-001  9.000000e-001
C_SRA_REPAT                       9.000000e-001  9.000000e-001  9.000000e-001  9.000000e-001  9.000000e-001  9.000000e-001
C_SRA_REPAT                       9.000000e-001  9.000000e-001  9.000000e-001  9.000000e-001  9.000000e-001  9.000000e-001
C_SRA_REPAT                       9.000000e-001  9.000000e-001  9.000000e-001  9.000000e-001  9.000000e-001  9.000000e-001
C_SRA_REPAT                       9.000000e-001  9.000000e-001  9.000000e-001  9.000000e-001  9.000000e-001  9.000000e-001
C_SRA_REPAT                       9.000000e-001  9.000000e-001  9.000000e-001  9.000000e-001  9.000000e-001  9.000000e-001
C_SRA_REPAT                       9.000000e-001  9.000000e-001  9.000000e-001  9.000000e-001  9.000000e-001  9.000000e-001
C_SRA_REPAT                       9.000000e-001  9.000000e-001  9.000000e-001  9.000000e-001  9.000000e-001  9.000000e-001
C_SRA_REPAT                       9.000000e-001  9.000000e-001  9.000000e-001  9.000000e-001  9.000000e-001  9.000000e-001
C_SRA_REPAT                       9.000000e-001  9.000000e-001  9.000000e-001  9.000000e-001  9.000000e-001  9.000000e-001
C_SRA_REPAT                       9.000000e-001  9.000000e-001  9.000000e-001  9.000000e-001  9.000000e-001  9.000000e-001
C_SRA_REPAT                       9.000000e-001  9.000000e-001  9.000000e-001  9.000000e-001  9.000000e-001  9.000000e-001
C_SRA_REPAT                       9.000000e-001  9.000000e-001  9.000000e-001  9.000000e-001  9.000000e-001  9.000000e-001
C_SRA_REPAT                       9.000000e-001  9.000000e-001  9.000000e-001  9.000000e-001  9.000000e-001  9.000000e-001
C_SRA_REPAT                       9.000000e-001  9.000000e-001  9.000000e-001  9.000000e-001  9.000000e-001  9.000000e-001
C_SRA_REPAT                       9.000000e-001  9.000000e-001  9.000000e-001  9.000000e-001  9.000000e-001  9.000000e-001
C_SRA_REPAT                       9.000000e-001  9.000000e-001  9.000000e-001  9.000000e-001  9.000000e-001  9.000000e-001
C_SRA_REPAT                       9.000000e-001  9.000000e-001  9.000000e-001  9.000000e-001  9.000000e-001  9.000000e-001
C_SRA_REPAT                       9.000000e-001  9.000000e-001  9.000000e-001  9.000000e-001  9.000000e-001  9.000000e-001
C_SRA_REPAT                       9.000000e-001  9.000000e-001  9.000000e-001  9.000000e-001  9.000000e-001  9.000000e-001
C_SRA_REPAT                       9.000000e-001  9.000000e-001  9.000000e-001  9.000000e-001  9.000000e-001  9.000000e-001
C_SRA_REPAT                       9.000000e-001  9.000000e-001  9.000000e-001  9.000000e-001  9.000000e-001  9.000000e-001
C_SRA_REPAT                       9.000000e-001  9.000000e-001  9.000000e-001  9.000000e-001  9.000000e-001  9.000000e-001
C_SRA_REPAT                       9.000000e-001  9.000000e-001  9.000000e-001  9.000000e-001  9.000000e-001  9.000000e-001
C_SRA_REPAT                       9.000000e-001  9.000000e-001  9.000000e-001  9.000000e-001  9.000000e-001  9.000000e-001
C_SRA_REPAT                       9.000000e-001  9.000000e-001  9.000000e-001  9.000000e-001  9.000000e-001  9.000000e-001
C_SRA_REPAT                       9.000000e-001  9.000000e-001  9.000000e-001  9.000000e-001  9.000000e-001  9.000000e-001
C_SRA_REPAT                       9.000000e-001  9.000000e-001  9.000000e-001  9.000000e-001  9.000000e-001  9.000000e-001
C_SRA_REPAT                       9.000000e-001  9.000000e-001  9.000000e-001  9.000000e-001  9.000000e-001  9.000000e-001
C_SRA_REPAT                       9.000000e-001  9.000000e-001  9.000000e-001  9.000000e-001  9.000000e-001  9.000000e-001
C_SRA_REPAT                       9.000000e-001  9.000000e-001  9.000000e-001  9.000000e-001  9.000000e-001  9.000000e-001
C_SRA_REPAT                       9.000000e-001  9.000000e-001  9.000000e-001  9.000000e-001  9.000000e-001  9.000000e-001
C_SRA_REPAT                       9.000000e-001  9.000000e-001  9.000000e-001  9.000000e-001  9.000000e-001  9.000000e-001
C_SRA_REPAT                       9.000000e-001  9.000000e-001  9.000000e-001  9.000000e-001  9.000000e-001  9.000000e-001
C_SRA_REPAT                       9.000000e-001  9.000000e-001  9.000000e-001  9.000000e-001  9.000000e-001  9.000000e-001
C_SRA_REPAT                       9.000000e-001  9.000000e-001  9.000000e-001  9.000000e-001  9.000000e-001  9.000000e-001
C_SRA_REPAT                       9.000000e-001  9.000000e-001  9.000000e-001  9.000000e-001  9.000000e-001  9.000000e-001
C_SRA_REPAT                       9.000000e-001  9.000000e-001  9.000000e-001  9.000000e-001  9.000000e-001  9.000000e-001
C_SRA_REPAT                       9.000000e-001  9.000000e-001  9.000000e-001  9.000000e-001  9.000000e-001  9.000000e-001
C_SRA_REPAT                       9.000000e-001  9.000000e-001  9.000000e-001  9.000000e-001  9.000000e-001  9.000000e-001
C_SRA_REPAT                       9.000000e-001  9.000000e-001  9.000000e-001  9.000000e-001  9.000000e-001  9.000000e-001
C_SRA_REPAT                       9.000000e-001  9.000000e-001  9.000000e-001  9.000000e-001  9.000000e-001  9.000000e-001
C_SRA_REPAT                       9.000000e-001  9.000000e-001  9.000000e-001  9.000000e-001  9.000000e-001  9.000000e-001
C_SRA_REPAT                       9.000000e-001  9.000000e-001  9.000000e-001  9.000000e-001  9.000000e-001  9.000000e-001
C_SRA_REPAT                       9.000000e-001  9.000000e-001  9.000000e-001  9.000000e-001  9.000000e-001  9.000000e-001
C_SRA_REPAT                       9.000000e-001  9.000000e-001  9.000000e-001  9.000000e-001  9.000000e-001  9.000000e-001
C_SRA_REPAT                       9.000000e-001  9.000000e-001  9.000000e-001  9.000000e-001  9.000000e-001  9.000000e-001
C_SRA_REPAT                       9.000000e-001  9.000000e-001  9.000000e-001  9.000000e-001  9.000000e-001  9.000000e-001
C_SRA_REPAT                       9.000000e-001  9.000000e-001  9.000000e-001  9.000000e-001  9.000000e-001  9.000000e-001
C_SRA_REPAT                       9.000000e-001  9.000000e-001  9.000000e-001  9.000000e-001  9.000000e-001  9.000000e-001
C_SRA_REPAT                       9.000000e-001  9.000000e-001  9.000000e-001  9.000000e-001  9.000000e-001  9.000000e-001
C_SRA_REPAT                       9.000000e-001  9.000000e-001  9.000000e-001  9.000000e-001  9.000000e-001  9.000000e-001
C_SRA_REPAT                       9.000000e-001  9.000000e-001  9.000000e-001  9.000000e-001  9.000000e-001  9.000000e-001
C_SRA_REPAT                       9.000000e-001  9.000000e-001  9.000000e-001  9.000000e-001  9.000000e-001  9.000000e-001
C_SRA_REPAT                       9.000000e-001  9.000000e-001  9.000000e-001  9.000000e-001  9.000000e-001  9.000000e-001
C_SRA_REPAT                       9.000000e-001  9.000000e-001  9.000000e-001  9.000000e-001  9.000000e-001  9.000000e-001
C_SRA_REPAT                       9.000000e-001  9.000000e-001  9.000000e-001  9.000000e-001  9.000000e-001  9.000000e-001
C_SRA_REPAT                       9.000000e-001  9.000000e-001  9.000000e-001  9.000000e-001  9.000000e-001  9.000000e-001
C_SRA_REPAT                       9.000000e-001  9.000000e-001  9.000000e-001  9.000000e-001  9.000000e-001  9.000000e-001
C_SRA_REPAT                       9.000000e-001  9.000000e-001  9.000000e-001  9.000000e-001  9.000000e-001  9.000000e-001
C_SRA_REPAT                       9.000000e-001  9.000000e-001  9.000000e-001  9.000000e-001  9.000000e-001  9.000000e-001
C_SRA_REPAT                       9.000000e-001  9.000000e-001  9.000000e-001  9.000000e-001  9.000000e-001  9.000000e-001
C_SRA_REPAT                       9.000000e-001  9.000000e-001  9.000000e-001  9.000000e-001  9.000000e-001  9.000000e-001
C_SRA_REPAT                       9.000000e-001  9.000000e-001  9.000000e-001  9.000000e-001  9.000000e-001  9.000000e-001
C_SRA_REPAT                       9.000000e-001  9.000000e-001  9.000000e-001  9.000000e-001  9.000000e-001  9.000000e-001
C_SRA_REPAT                       9.000000e-001  9.000000e-001  9.000000e-001  9.000000e-001  9.000000e-001  9.000000e-001
C_SRA_REPAT                       9.000000e-001  9.000000e-001  9.000000e-001  9.000000e-001  9.000000e-001  9.000000e-001
C_SRA_REPAT                       9.000000e-001  9.000000e-001  9.000000e-001  9.000000e-001  9.000000e-001  9.000000e-001
C_SRA_REPAT                       9.000000e-001  9.000000e-001  9.000000e-001  9.000000e-001  9.000000e-001  9.000000e-001
C_SRA_REPAT                       9.000000e-001  9.000000e-001  9.000000e-001  9.000000e-001  9.000000e-001  9.000000e-001
C_SRA_REPAT                       9.000000e-001  9.000000e-001  9.000000e-001  9.000000e-001  9.000000e-001  9.000000e-001
C_SRA_REPAT                       9.000000e-001  9.000000e-001  9.000000e-001  9.000000e-001  9.000000e-001  9.000000e-001
C_SRA_REPAT                       9.000000e-001  9.000000e-001  9.000000e-001  9.000000e-001  9.000000e-001  9.000000e-001
C_SRA_REPAT                       9.000000e-001  9.000000e-001  9.000000e-001  9.000000e-001  9.000000e-001  9.000000e-001
C_SRA_REPAT                       9.000000e-001  9.000000e-001  9.000000e-001  9.000000e-001  9.000000e-001  9.000000e-001
C_SRA_REPAT                       9.000000e-001  9.000000e-001  9.000000e-001  9.000000e-001  9.000000e-001  9.000000e-001
C_SRA_REPAT                       9.000000e-001  9.000000e-001  9.000000e-001  9.000000e-001  9.000000e-001  9.000000e-001
C_SRA_REPAT                       9.000000e-001  9.000000e-001  9.000000e-001  9.000000e-001  9.000000e-001  9.000000e-001
C_SRA_REPAT                       9.000000e-001  9.000000e-001  9.000000e-001  9.000000e-001  9.000000e-001  9.000000e-001
C_SRA_REPAT                       9.000000e-001  9.000000e-001  9.000000e-001  9.000000e-001  9.000000e-001  9.000000e-001
C_SRA_REPAT                       9.000000e-001  9.000000e-001  9.000000e-001  9.000000e-001  9.000000e-001  9.000000e-001
C_SRA_REPAT                       9.000000e-001  9.000000e-001  9.000000e-001  9.000000e-001  9.000000e-001  9.000000e-001
C_SRA_REPAT                       9.000000e-001  9.000000e-001  9.000000e-001  9.000000e-001  9.000000e-001  9.000000e-001
C_SRA_REPAT                       9.000000e-001  9.000000e-001  9.000000e-001  9.000000e-001  9.000000e-001  9.000000e-001
C_SRA_REPAT                       9.000000e-001  9.000000e-001  9.000000e-001  9.000000e-001  9.000000e-001  9.000000e-001
C_SRA_REPAT                       9.000000e-001  9.000000e-001  9.000000e-001  9.000000e-001  9.000000e-001  9.000000e-001
C_SRA_REPAT                       9.000000e-001  9.000000e-001  9.000000e-001  9.000000e-001  9.000000e-001  9.000000e-001
C_SRA_REPAT                       9.000000e-001  9.000000e-001  9.000000e-001  9.000000e-001  9.000000e-001  9.000000e-001
C_SRA_REPAT                       9.000000e-001  9.000000e-001  9.000000e-001  9.000000e-001  9.000000e-001  9.000000e-001
C_SRA_REPAT                       9.000000e-001  9.000000e-001  9.000000e-001  9.000000e-001  9.000000e-001  9.000000e-001
C_SRA_REPAT                       9.000000e-001  9.000000e-001  9.000000e-001  9.000000e-001  9.000000e-001  9.000000e-001
C_SRA_REPAT                       9.000000e-001  9.000000e-001  9.000000e-001  9.000000e-001  9.000000e-001  9.000000e-001
C_SRA_REPAT                       9.000000e-001  9.000000e-001  9.000000e-001  9.000000e-001  9.000000e-001  9.000000e-001
C_SRA_REPAT                       9.000000e-001  9.000000e-001  9.000000e-001  9.000000e-001  9.000000e-001  9.000000e-001
C_SRA_REPAT                       9.000000e-001  9.000000e-001  9.000000e-001  9.000000e-001  9.000000e-001  9.000000e-001
C_SRA_REPAT                       9.000000e-001  9.000000e-001  9.000000e-001  9.000000e-001  9.000000e-001  9.000000e-001
C_SRA_REPAT                       9.000000e-001  9.000000e-001  9.000000e-001  9.000000e-001  9.000000e-001  9.000000e-001
C_SRA_REPAT                       9.000000e-001  9.000000e-001  9.000000e-001  9.000000e-001  9.000000e-001  9.000000e-001
C_SRA_REPAT                       9.000000e-001  9.000000e-001  9.000000e-001  9.000000e-001  9.000000e-001  9.000000e-001
C_SRA_REPAT                       9.000000e-001  9.000000e-001  9.000000e-001  9.000000e-001  9.000000e-001  9.000000e-001
C_SRA_REPAT                       9.000000e-001  9.000000e-001  9.000000e-001  9.000000e-001  9.000000e-001  9.000000e-001
C_SRA_REPAT                       9.000000e-001  9.000000e-001  9.000000e-001  9.000000e-001  9.000000e-001  9.000000e-001
C_SRA_REPAT                       9.000000e-001  9.000000e-001  9.000000e-001  9.000000e-001  9.000000e-001  9.000000e-001
C_SRA_REPAT                       9.000000e-001  9.000000e-001  9.000000e-001  9.000000e-001  9.000000e-001  9.000000e-001
C_SRA_REPAT                       9.000000e-001  9.000000e-001  9.000000e-001  9.000000e-001  9.000000e-001  9.000000e-001
C_SRA_REPAT                       9.000000e-001  9.000000e-001  9.000000e-001  9.000000e-001  9.000000e-001  9.000000e-001
C_SRA_REPAT                       9.000000e-001  9.000000e-001  9.000000e-001  9.000000e-001  9.000000e-001  9.000000e-001
C_SRA_REPAT                       9.000000e-001  9.000000e-001  9.000000e-001  9.000000e-001  9.000000e-001  9.000000e-001
C_SRA_REPAT                       9.000000e-001  9.000000e-001  9.000000e-001  9.000000e-001  9.000000e-001  9.000000e-001
C_SRA_REPAT                       9.000000e-001  9.000000e-001  9.000000e-001  9.000000e-001  9.000000e-001  9.000000e-001
C_SRA_REPAT                       9.000000e-001  9.000000e-001  9.000000e-001  9.000000e-001  9.000000e-001  9.000000e-001
C_SRA_REPAT                       9.000000e-001  9.000000e-001  9.000000e-001  9.000000e-001  9.000000e-001  9.000000e-001
C_SRA_REPAT                       9.000000e-001  9.000000e-001  9.000000e-001  9.000000e-001  9.000000e-001  9.000000e-001
C_SRA_REPAT                       9.000000e-001  9.000000e-001  9.000000e-001  9.000000e-001  9.000000e-001  9.000000e-001
C_SRA_REPAT                       9.000000e-001  9.000000e-001  9.000000e-001  9.000000e-001  9.000000e-001  9.000000e-001
C_SRA_REPAT                       9.000000e-001  9.000000e-001  9.000000e-001  9.000000e-001  9.000000e-001  9.000000e-001
C_SRA_REPAT                       9.000000e-001  9.000000e-001  9.000000e-001  9.000000e-001  9.000000e-001  9.000000e-001
C_SRA_REPAT                       9.000000e-001  9.000000e-001  9.000000e-001  9.000000e-001  9.000000e-001  9.000000e-001
C_SRA_REPAT                       9.000000e-001  9.000000e-001  9.000000e-001  9.000000e-001  9.000000e-001  9.000000e-001
C_SRA_REPAT                       9.000000e-001  9.000000e-001  9.000000e-001  9.000000e-001  9.000000e-001  9.000000e-001
C_SRA_REPAT                       9.000000e-001  9.000000e-001  9.000000e-001  9.000000e-001  9.000000e-001  9.000000e-001
C_SRA_REPAT                       9.000000e-001  9.000000e-001  9.000000e-001  9.000000e-001  9.000000e-001  9.000000e-001
C_SRA_REPAT                       9.000000e-001  9.000000e-001  9.000000e-001  9.000000e-001  9.000000e-001  9.000000e-001
C_SRA_REPAT                       9.000000e-001  9.000000e-001  9.000000e-001  9.000000e-001  9.000000e-001  9.000000e-001
C_SRA_REPAT                       9.000000e-001  9.000000e-001  9.000000e-001  9.000000e-001  9.000000e-001  9.000000e-001
C_SRA_REPAT                       9.000000e-001  9.000000e-001  9.000000e-001  9.000000e-001  9.000000e-001  9.000000e-001
C_SRA_REPAT                       9.000000e-001  9.000000e-001  9.000000e-001  9.000000e-001  9.000000e-001  9.000000e-001
C_SRA_REPAT                       9.000000e-001  9.000000e-001  9.000000e-001  9.000000e-001  9.000000e-001  9.000000e-001
C_SRA_REPAT                       9.000000e-001  9.000000e-001  9.000000e-001  9.000000e-001  9.000000e-001  9.000000e-001
C_SRA_REPAT                       9.000000e-001  9.000000e-001  9.000000e-001  9.000000e-001  9.000000e-001  9.000000e-001
C_SRA_REPAT                       9.000000e-001  9.000000e-001  9.000000e-001  9.000000e-001  9.000000e-001  9.000000e-001
C_SRA_REPAT                       9.000000e-001  9.000000e-001  9.000000e-001  9.000000e-001  9.000000e-001  9.000000e-001
C_SRA_REPAT                       9.000000e-001  9.000000e-001  9.000000e-001  9.000000e-001  9.000000e-001  9.000000e-001
C_SRA_REPAT                       9.000000e-001  9.000000e-001  9.000000e-001  9.000000e-001  9.000000e-001  9.000000e-001
C_SRA_REPAT                       9.000000e-001  9.000000e-001  9.000000e-001  9.000000e-001  9.000000e-001  9.000000e-001
C_SRA_REPAT                       9.000000e-001  9.000000e-001  9.000000e-001  9.000000e-001  9.000000e-001  9.000000e-001
C_SRA_REPAT                       9.000000e-001  9.000000e-001  9.000000e-001  9.000000e-001  9.000000e-001  9.000000e-001
C_SRA_REPAT                       9.000000e-001  9.000000e-001  9.000000e-001  9.000000e-001  9.000000e-001  9.000000e-001
C_SRA_REPAT                       9.000000e-001  9.000000e-001  9.000000e-001  9.000000e-001  9.000000e-001  9.000000e-001
C_SRA_REPAT                       9.000000e-001  9.000000e-001  9.000000e-001  9.000000e-001  9.000000e-001  9.000000e-001
C_SRA_REPAT                       9.000000e-001  9.000000e-001  9.000000e-001  9.000000e-001  9.000000e-001  9.000000e-001
C_SRA_REPAT                       9.000000e-001  9.000000e-001  9.000000e-001  9.000000e-001  9.000000e-001  9.000000e-001
C_SRA_REPAT                       9.000000e-001  9.000000e-001  9.000000e-001  9.000000e-001  9.000000e-001  9.000000e-001
C_SRA_REPAT                       9.000000e-001  9.000000e-001  9.000000e-001  9.000000e-001  9.000000e-001  9.000000e-001
C_SRA_REPAT                       9.000000e-001  9.000000e-001  9.000000e-001  9.000000e-001  9.000000e-001  9.000000e-001
C_SRA_REPAT                       9.000000e-001  9.000000e-001  9.000000e-001  9.000000e-001  9.000000e-001  9.000000e-001
C_SRA_REPAT                       9.000000e-001  9.000000e-001  9.000000e-001  9.000000e-001  9.000000e-001  9.000000e-001
C_SRA_REPAT                       9.000000e-001  9.000000e-001  9.000000e-001  9.000000e-001  9.000000e-001  9.000000e-001
C_SRA_REPAT                       9.000000e-001  9.000000e-001  9.000000e-001  9.000000e-001  9.000000e-001  9.000000e-001
C_SRA_REPAT                       9.000000e-001  9.000000e-001  9.000000e-001  9.000000e-001  9.000000e-001  9.000000e-001
C_SRA_REPAT                       9.000000e-001  9.000000e-001  9.000000e-001  9.000000e-001  9.000000e-001  9.000000e-001
C_SRA_REPAT                       9.000000e-001  9.000000e-001  9.000000e-001  9.000000e-001  9.000000e-001  9.000000e-001
C_SRA_REPAT                       9.000000e-001  9.000000e-001  9.000000e-001  9.000000e-001  9.000000e-001  9.000000e-001
C_SRA_REPAT                       9.000000e-001  9.000000e-001  9.000000e-001  9.000000e-001  9.000000e-001  9.000000e-001
C_SRA_REPAT                       9.000000e-001  9.000000e-001  9.000000e-001  9.000000e-001  9.000000e-001  9.000000e-001
C_SRA_REPAT                       9.000000e-001  9.000000e-001  9.000000e-001  9.000000e-001  9.000000e-001  9.000000e-001
C_SRA_REPAT                       9.000000e-001  9.000000e-001  9.000000e-001  9.000000e-001  9.000000e-001  9.000000e-001
C_SRA_REPAT                       9.000000e-001  9.000000e-001  9.000000e-001  9.000000e-001  9.000000e-001  9.000000e-001
C_SRA_REPAT                       9.000000e-001  9.000000e-001  9.000000e-001  9.000000e-001  9.000000e-001  9.000000e-001